Version 4
SHEET 1 1336 680
WIRE 896 -304 400 -304
WIRE 1264 -304 896 -304
WIRE 1264 -208 1264 -304
WIRE 320 -112 256 -112
WIRE 384 -112 320 -112
WIRE 480 -112 464 -112
WIRE 832 -112 784 -112
WIRE 864 -112 832 -112
WIRE 976 -112 944 -112
WIRE 832 -32 832 -112
WIRE 976 -32 976 -112
WIRE 976 -32 832 -32
WIRE 896 16 896 -304
WIRE 400 32 400 -304
WIRE 832 32 832 -32
WIRE 864 32 832 32
WIRE 320 48 320 -112
WIRE 368 48 320 48
WIRE 976 48 976 -32
WIRE 976 48 928 48
WIRE 480 64 480 -112
WIRE 480 64 432 64
WIRE 832 64 800 64
WIRE 864 64 832 64
WIRE 368 80 336 80
WIRE 272 96 208 96
WIRE 336 96 336 80
WIRE 336 96 272 96
WIRE 272 112 272 96
WIRE 832 112 832 64
WIRE -80 128 -96 128
WIRE -80 192 -80 128
WIRE 272 224 272 176
WIRE 832 224 832 192
WIRE 400 464 400 96
WIRE 896 464 896 80
WIRE 896 464 400 464
WIRE 1280 464 1280 432
WIRE 1280 464 896 464
FLAG -80 272 0
FLAG 272 224 0
FLAG 832 224 0
FLAG 976 48 Vo
IOPIN 976 48 Out
FLAG 1264 -128 0
FLAG 1280 352 0
FLAG 176 -112 0
FLAG 704 -112 0
FLAG -96 128 Vin
FLAG 736 64 Vin
FLAG 128 96 Vin
SYMBOL voltage -80 176 R0
WINDOW 123 24 124 Left 2
WINDOW 39 0 0 Left 0
SYMATTR Value2 AC 1
SYMATTR InstName V1
SYMATTR Value SINE(0 5 1000)
SYMBOL voltage 1264 -224 R0
SYMATTR InstName V2
SYMATTR Value 15
SYMBOL voltage 1280 336 R0
SYMATTR InstName V3
SYMATTR Value 15
SYMBOL OpAmps\\LM741 896 -16 R0
SYMATTR InstName U1
SYMBOL OpAmps\\LM741 400 0 R0
SYMATTR InstName U2
SYMBOL cap 256 112 R0
SYMATTR InstName C1
SYMATTR Value 0.1µ
SYMBOL cap 800 48 R90
WINDOW 0 0 32 VBottom 2
WINDOW 3 32 32 VTop 2
SYMATTR InstName C2
SYMATTR Value 0.1µ
SYMBOL res 224 80 R90
WINDOW 0 0 56 VBottom 2
WINDOW 3 32 56 VTop 2
SYMATTR InstName R1
SYMATTR Value 159.15
SYMATTR SpiceLine tol=0
SYMBOL res 848 208 R180
WINDOW 0 36 76 Left 2
WINDOW 3 36 40 Left 2
SYMATTR InstName R2
SYMATTR Value 318.309
SYMATTR SpiceLine tol=0
SYMBOL res 480 -128 R90
WINDOW 0 0 56 VBottom 2
WINDOW 3 32 56 VTop 2
SYMATTR InstName R3
SYMATTR Value 160
SYMBOL res 272 -128 R90
WINDOW 0 0 56 VBottom 2
WINDOW 3 32 56 VTop 2
SYMATTR InstName R4
SYMATTR Value 160
SYMBOL res 800 -128 R90
WINDOW 0 0 56 VBottom 2
WINDOW 3 32 56 VTop 2
SYMATTR InstName R5
SYMATTR Value 320
SYMBOL res 960 -128 R90
WINDOW 0 0 56 VBottom 2
WINDOW 3 32 56 VTop 2
SYMATTR InstName R6
SYMATTR Value 320
TEXT -112 472 Left 2 !.ac dec 100 1 100k
