Version 4
SHEET 1 880 680
WIRE 448 -112 112 -112
WIRE 400 16 240 16
WIRE 624 16 480 16
WIRE 112 128 112 -112
WIRE 448 144 448 -112
WIRE 240 160 240 16
WIRE 416 160 240 160
WIRE 624 176 624 16
WIRE 624 176 480 176
WIRE 416 192 384 192
WIRE 240 208 240 160
WIRE 624 208 624 176
WIRE 112 224 112 208
WIRE 112 224 0 224
WIRE 0 240 0 224
WIRE 112 240 112 224
WIRE 384 304 384 192
WIRE 624 304 624 288
WIRE 624 304 384 304
WIRE 624 320 624 304
WIRE 240 432 240 272
WIRE 624 432 624 400
WIRE 624 432 240 432
WIRE 624 464 624 432
WIRE 112 544 112 320
WIRE 448 544 448 208
WIRE 448 544 112 544
FLAG 0 240 0
FLAG 624 464 0
SYMBOL voltage 112 112 R0
SYMATTR InstName V1
SYMATTR Value 15
SYMBOL OpAmps\\LM741 448 112 R0
SYMATTR InstName U1
SYMBOL voltage 112 336 R180
WINDOW 0 24 96 Left 2
WINDOW 3 24 16 Left 2
SYMATTR InstName V2
SYMATTR Value -15
SYMBOL res 608 192 R0
SYMATTR InstName R1
SYMATTR Value 1k
SYMBOL res 608 304 R0
SYMATTR InstName R2
SYMATTR Value 1k
SYMBOL res 496 0 R90
WINDOW 0 0 56 VBottom 2
WINDOW 3 32 56 VTop 2
SYMATTR InstName Rf
SYMATTR Value 10k
SYMBOL cap 224 208 R0
SYMATTR InstName C1
SYMATTR Value 0.1µ
TEXT -24 552 Left 2 !.tran 5ms
TEXT -344 40 Left 2 ;Astable Mulitvibrator using opamp
