Version 4
SHEET 1 1540 680
WIRE 576 0 400 0
WIRE 1120 0 576 0
WIRE 1504 0 1120 0
WIRE 1120 48 1120 0
WIRE 400 80 400 0
WIRE 432 80 400 80
WIRE 576 80 576 0
WIRE 576 80 544 80
WIRE 400 96 400 80
WIRE 576 96 576 80
WIRE 432 144 432 80
WIRE 432 144 400 144
WIRE 544 144 544 80
WIRE 576 144 544 144
WIRE 400 208 400 192
WIRE 512 208 400 208
WIRE 576 208 576 192
WIRE 576 208 512 208
WIRE 512 288 512 208
WIRE 512 336 512 288
WIRE 528 384 512 384
WIRE 528 432 528 384
WIRE 528 432 512 432
WIRE 512 464 512 432
WIRE 880 480 880 464
WIRE 944 480 880 480
WIRE 1024 480 1024 432
WIRE 1024 480 944 480
WIRE 528 512 512 512
WIRE 944 512 944 480
WIRE 528 560 528 512
WIRE 528 560 512 560
WIRE 512 608 512 560
FLAG -96 416 0
FLAG -96 544 0
FLAG 1120 128 0
FLAG 512 608 0
FLAG -96 336 Va
FLAG 352 176 Va
FLAG 464 416 Va
FLAG -96 464 Vb
FLAG 464 544 Vb
FLAG 624 176 Vb
FLAG 512 288 Vout
IOPIN 512 288 Out
FLAG 832 448 Va
FLAG 1024 336 Va
FLAG 880 368 Vb
FLAG 1072 416 Vb
FLAG 944 512 Vand
IOPIN 944 512 Out
SYMBOL nmos4 464 336 R0
SYMATTR InstName M1
SYMBOL nmos4 464 464 R0
SYMATTR InstName M2
SYMBOL pmos4 352 96 R0
SYMATTR InstName M3
SYMBOL pmos4 624 96 M0
SYMATTR InstName M4
SYMBOL voltage -96 320 R0
WINDOW 123 0 0 Left 0
WINDOW 39 0 0 Left 0
SYMATTR InstName A
SYMATTR Value PULSE(0 3.3 0 1n 1n 1 2)
SYMBOL voltage -96 448 R0
SYMATTR InstName B
SYMATTR Value PULSE(0 3.3 0 1n 1n 0.5 1)
SYMBOL voltage 1120 32 R0
SYMATTR InstName Vdd
SYMATTR Value 3.3
SYMBOL nmos 832 368 R0
SYMATTR InstName M5
SYMBOL nmos 1072 336 M0
SYMATTR InstName M6
TEXT -264 56 Left 2 ;CMOS NAND
TEXT -192 104 Left 2 !.tran 4
