Version 4
SHEET 1 880 680
WIRE 272 128 144 128
WIRE 464 128 336 128
WIRE 464 192 464 128
WIRE 144 208 144 128
WIRE 464 288 464 256
FLAG 144 288 0
FLAG 464 288 0
FLAG 464 128 Vo
IOPIN 464 128 Out
FLAG 144 128 Vin
IOPIN 144 128 In
SYMBOL diode 448 192 R0
SYMATTR InstName D1
SYMATTR Value 1N4148
SYMBOL cap 336 112 R90
WINDOW 0 0 32 VBottom 2
WINDOW 3 32 32 VTop 2
SYMATTR InstName C1
SYMATTR Value 2µ
SYMBOL voltage 144 192 R0
SYMATTR InstName V1
SYMATTR Value SINE(0 5 1)
TEXT 112 312 Left 2 !.tran 10
