Version 4
SHEET 1 880 680
WIRE 592 -96 256 -96
WIRE 592 16 592 -96
WIRE 176 64 160 64
WIRE 288 64 176 64
WIRE 384 64 368 64
WIRE 176 112 176 64
WIRE 384 112 384 64
WIRE 384 112 176 112
WIRE 256 144 256 -96
WIRE 176 160 176 112
WIRE 224 160 176 160
WIRE 384 176 384 112
WIRE 384 176 288 176
WIRE 416 176 384 176
WIRE 16 192 -112 192
WIRE 128 192 80 192
WIRE 224 192 128 192
WIRE -112 224 -112 192
WIRE 128 224 128 192
WIRE 128 240 128 224
WIRE 256 608 256 208
WIRE 592 608 592 368
WIRE 592 608 256 608
FLAG -112 304 0
FLAG 592 288 0
FLAG 592 96 0
FLAG 128 304 0
FLAG 416 176 Vo
IOPIN 416 176 Out
FLAG -112 192 Vin
IOPIN -112 192 In
FLAG 80 64 0
SYMBOL voltage 592 0 R0
SYMATTR InstName V1
SYMATTR Value 15
SYMBOL voltage 592 272 R0
SYMATTR InstName V2
SYMATTR Value 15
SYMBOL voltage -112 208 R0
WINDOW 123 24 124 Left 2
WINDOW 39 0 0 Left 0
SYMATTR Value2 AC 1
SYMATTR InstName AC
SYMATTR Value SINE(0 5 5k)
SYMBOL cap 80 176 R90
WINDOW 0 0 32 VBottom 2
WINDOW 3 32 32 VTop 2
SYMATTR InstName C1
SYMATTR Value 0.1µ
SYMBOL res 144 320 R180
WINDOW 0 36 76 Left 2
WINDOW 3 36 40 Left 2
SYMATTR InstName R1
SYMATTR Value 318.309
SYMATTR SpiceLine tol=-10
SYMBOL OpAmps\\LM741 256 112 R0
SYMATTR InstName U1
SYMBOL res 176 48 R90
WINDOW 0 0 56 VBottom 2
WINDOW 3 32 56 VTop 2
SYMATTR InstName R2
SYMATTR Value 318.309
SYMATTR SpiceLine tol=-10
SYMBOL res 384 48 R90
WINDOW 0 0 56 VBottom 2
WINDOW 3 32 56 VTop 2
SYMATTR InstName R3
SYMATTR Value 318.309
SYMATTR SpiceLine tol=-10
TEXT -184 400 Left 2 !.ac dec 100 1 100k
TEXT -176 448 Left 2 !;tran 1ms
TEXT -336 -8 Left 2 ;High-pass Filter
TEXT -272 24 Left 2 ;fc = 5kHz
