Version 4
SHEET 1 880 680
WIRE 16 16 -96 16
WIRE 160 32 80 32
WIRE 208 32 160 32
WIRE 304 32 288 32
WIRE 320 32 304 32
WIRE 432 32 400 32
WIRE 16 48 -208 48
WIRE 160 48 160 32
WIRE -208 96 -208 48
WIRE 720 128 672 128
WIRE -96 144 -96 16
WIRE 160 144 160 128
WIRE 160 144 -96 144
WIRE 160 160 160 144
WIRE 304 160 304 32
WIRE 320 160 304 160
WIRE 432 176 432 32
WIRE 432 176 384 176
WIRE 320 192 304 192
WIRE 160 256 160 240
WIRE 160 256 -96 256
WIRE -96 336 -96 256
WIRE 16 336 -96 336
WIRE 160 352 160 336
WIRE 160 352 80 352
WIRE 208 352 160 352
WIRE 304 352 304 192
WIRE 304 352 288 352
WIRE 336 352 304 352
WIRE 16 368 -208 368
WIRE -208 384 -208 368
FLAG 416 352 0
FLAG 720 128 0
FLAG 672 48 +15V
FLAG 48 0 +15V
FLAG 48 320 +15V
FLAG 352 144 +15V
FLAG 672 208 -15V
FLAG 48 64 -15V
FLAG 48 384 -15V
FLAG 352 208 -15V
FLAG -208 176 0
FLAG -208 464 0
SYMBOL OpAmps\\OP07 48 -32 R0
SYMATTR InstName U1
SYMBOL OpAmps\\OP07 48 288 R0
SYMATTR InstName U2
SYMBOL OpAmps\\OP07 352 112 R0
SYMATTR InstName U3
SYMBOL res 144 32 R0
SYMATTR InstName R1
SYMATTR Value 3.5k
SYMBOL res 144 144 R0
SYMATTR InstName Rg
SYMATTR Value {R}
SYMBOL res 144 240 R0
SYMATTR InstName R3
SYMATTR Value 3.5k
SYMBOL res 304 16 R90
WINDOW 0 0 56 VBottom 2
WINDOW 3 32 56 VTop 2
SYMATTR InstName R4
SYMATTR Value 1k
SYMBOL res 304 336 R90
WINDOW 0 0 56 VBottom 2
WINDOW 3 32 56 VTop 2
SYMATTR InstName R5
SYMATTR Value 1k
SYMBOL res 432 336 R90
WINDOW 0 0 56 VBottom 2
WINDOW 3 32 56 VTop 2
SYMATTR InstName R6
SYMATTR Value 10k
SYMBOL res 416 16 R90
WINDOW 0 0 56 VBottom 2
WINDOW 3 32 56 VTop 2
SYMATTR InstName R7
SYMATTR Value 10k
SYMBOL voltage 672 32 R0
WINDOW 123 0 0 Left 0
WINDOW 39 0 0 Left 0
SYMATTR InstName V1
SYMATTR Value 15
SYMBOL voltage 672 224 R180
WINDOW 0 24 96 Left 2
WINDOW 3 24 16 Left 2
WINDOW 123 0 0 Left 0
WINDOW 39 0 0 Left 0
SYMATTR InstName V2
SYMATTR Value -15
SYMBOL voltage -208 80 R0
SYMATTR InstName V3
SYMATTR Value 0.1V
SYMBOL voltage -208 368 R0
SYMATTR InstName V4
SYMATTR Value 0.2V
TEXT 672 440 Left 2 !.tran 1
TEXT 536 400 Left 2 !.step param R 100 1100 200
