Version 4
SHEET 1 1788 680
WIRE 1440 -656 1312 -656
WIRE 1632 -656 1520 -656
WIRE 1312 -544 1312 -656
WIRE 1440 -544 1312 -544
WIRE 1632 -544 1632 -656
WIRE 1632 -544 1504 -544
WIRE 1488 -480 720 -480
WIRE 1488 -368 1488 -480
WIRE 1104 -352 1072 -352
WIRE 1312 -352 1312 -544
WIRE 1312 -352 1184 -352
WIRE 1456 -352 1312 -352
WIRE 1632 -336 1632 -544
WIRE 1632 -336 1520 -336
WIRE 1456 -320 1392 -320
WIRE 720 -256 720 -480
WIRE 944 -256 720 -256
WIRE 1392 -256 1392 -320
WIRE 1072 -240 1072 -352
WIRE 720 -64 720 -256
WIRE 720 -64 512 -64
WIRE -16 32 -208 32
WIRE 0 32 -16 32
WIRE 240 32 192 32
WIRE 400 32 320 32
WIRE -208 64 -208 32
WIRE 512 96 512 -64
WIRE 512 96 288 96
WIRE 1488 96 1488 -304
WIRE 1488 96 800 96
WIRE 288 144 288 96
WIRE 0 160 0 32
WIRE 128 160 80 160
WIRE 192 160 192 32
WIRE 192 160 128 160
WIRE 256 160 192 160
WIRE 400 176 400 32
WIRE 400 176 320 176
WIRE 256 192 208 192
WIRE 208 224 208 192
WIRE 1712 224 1376 224
WIRE 1712 240 1712 224
WIRE -80 256 -208 256
WIRE 0 256 -80 256
WIRE 128 256 128 160
WIRE 128 256 80 256
WIRE -208 272 -208 256
WIRE 1376 304 1376 224
WIRE 1440 304 1376 304
WIRE 1712 304 1520 304
WIRE 944 384 944 -256
WIRE 1504 384 944 384
WIRE 288 416 288 208
WIRE 736 416 736 400
WIRE 736 416 288 416
WIRE 800 416 800 96
WIRE 800 416 736 416
WIRE 1504 480 1504 384
WIRE 1152 496 1072 496
WIRE 1376 496 1376 304
WIRE 1376 496 1296 496
WIRE 1472 496 1376 496
WIRE 1712 512 1712 304
WIRE 1712 512 1536 512
WIRE 1072 528 1072 496
WIRE 1472 528 1424 528
WIRE 1424 608 1424 528
WIRE 800 672 800 416
WIRE 1504 672 1504 544
WIRE 1504 672 800 672
FLAG 736 320 0
FLAG 720 16 0
FLAG 208 224 0
FLAG 400 176 Vadder
IOPIN 400 176 Out
FLAG -208 144 0
FLAG -208 352 0
FLAG -16 32 V1
IOPIN -16 32 In
FLAG -80 256 V2
IOPIN -80 256 In
FLAG 1392 -256 0
FLAG 1424 608 0
FLAG 1072 608 0
FLAG 1072 -160 0
SYMBOL OpAmps\\LM741 288 112 R0
SYMATTR InstName U1
SYMBOL voltage 720 -80 R0
SYMATTR InstName V1
SYMATTR Value 15
SYMBOL voltage 736 304 R0
SYMATTR InstName V2
SYMATTR Value 15
SYMBOL res 336 16 R90
WINDOW 0 0 56 VBottom 2
WINDOW 3 32 56 VTop 2
SYMATTR InstName R1
SYMATTR Value 1k
SYMBOL res 96 144 R90
WINDOW 0 0 56 VBottom 2
WINDOW 3 32 56 VTop 2
SYMATTR InstName R2
SYMATTR Value 1k
SYMBOL res 96 240 R90
WINDOW 0 0 56 VBottom 2
WINDOW 3 32 56 VTop 2
SYMATTR InstName R3
SYMATTR Value 1k
SYMBOL voltage -208 48 R0
WINDOW 123 0 0 Left 0
WINDOW 39 0 0 Left 0
SYMATTR InstName Va
SYMATTR Value SINE(0 2 1k)
SYMBOL voltage -208 256 R0
WINDOW 123 0 0 Left 0
WINDOW 39 0 0 Left 0
SYMATTR InstName Vb
SYMATTR Value SINE(0 3 1k)
SYMBOL OpAmps\\LM741 1488 -400 R0
SYMATTR InstName U2
SYMBOL OpAmps\\LM741 1504 448 R0
SYMATTR InstName U3
SYMBOL res 1200 -368 R90
WINDOW 0 0 56 VBottom 2
WINDOW 3 32 56 VTop 2
SYMATTR InstName R4
SYMATTR Value 795
SYMBOL res 1536 288 R90
WINDOW 0 0 56 VBottom 2
WINDOW 3 32 56 VTop 2
SYMATTR InstName R5
SYMATTR Value 3.183k
SYMBOL cap 1504 -560 R90
WINDOW 0 0 32 VBottom 2
WINDOW 3 32 32 VTop 2
SYMATTR InstName C1
SYMATTR Value 0.1µ
SYMBOL cap 1296 480 R90
WINDOW 0 0 32 VBottom 2
WINDOW 3 32 32 VTop 2
SYMATTR InstName C2
SYMATTR Value 0.1µ
SYMBOL voltage 1072 -256 R0
WINDOW 123 0 0 Left 0
WINDOW 39 0 0 Left 0
SYMATTR InstName Vc
SYMATTR Value PULSE(-5 5 0 0 0 0.5m 1m)
SYMBOL voltage 1072 512 R0
WINDOW 123 0 0 Left 0
WINDOW 39 0 0 Left 0
SYMATTR InstName Vd
SYMATTR Value PULSE(-5 5 0 0 0 0.5m 1m)
SYMBOL res 1536 -672 R90
WINDOW 0 0 56 VBottom 2
WINDOW 3 32 56 VTop 2
SYMATTR InstName R6
SYMATTR Value 3k
SYMBOL res 1248 480 R90
WINDOW 0 0 56 VBottom 2
WINDOW 3 32 56 VTop 2
SYMATTR InstName R7
SYMATTR Value 318
SYMBOL cap 1696 240 R0
SYMATTR InstName C3
SYMATTR Value 0.01µ
TEXT -240 424 Left 2 !.tran 10m
