Version 4
SHEET 1 880 680
WIRE 176 16 112 16
WIRE 400 16 256 16
WIRE 112 160 112 16
WIRE 112 160 -128 160
WIRE 192 160 112 160
WIRE 400 176 400 16
WIRE 400 176 256 176
WIRE 192 192 80 192
WIRE 656 208 656 176
WIRE 720 208 656 208
WIRE 656 240 656 208
WIRE -128 320 -128 160
WIRE 80 320 -128 320
WIRE 192 320 144 320
WIRE 320 320 256 320
WIRE 400 320 400 176
WIRE 400 320 384 320
FLAG 80 400 0
FLAG 192 400 0
FLAG 320 400 0
FLAG 720 208 0
FLAG 80 192 0
FLAG 656 96 Vcc
FLAG 224 144 Vcc
FLAG 656 320 -Vcc
FLAG 224 208 -Vcc
SYMBOL res 272 0 R90
WINDOW 0 0 56 VBottom 2
WINDOW 3 32 56 VTop 2
SYMATTR InstName Rf
SYMATTR Value 4693.45
SYMBOL res 96 416 R180
WINDOW 0 36 76 Left 2
WINDOW 3 36 40 Left 2
SYMATTR InstName R1
SYMATTR Value 159.1
SYMBOL res 208 416 R180
WINDOW 0 36 76 Left 2
WINDOW 3 36 40 Left 2
SYMATTR InstName R2
SYMATTR Value 159.1
SYMBOL res 336 416 R180
WINDOW 0 36 76 Left 2
WINDOW 3 36 40 Left 2
SYMATTR InstName R3
SYMATTR Value 159.1
SYMBOL cap 144 304 R90
WINDOW 0 0 32 VBottom 2
WINDOW 3 32 32 VTop 2
SYMATTR InstName C1
SYMATTR Value 0.1µ
SYMBOL cap 256 304 R90
WINDOW 0 0 32 VBottom 2
WINDOW 3 32 32 VTop 2
SYMATTR InstName C2
SYMATTR Value 0.1µ
SYMBOL cap 384 304 R90
WINDOW 0 0 32 VBottom 2
WINDOW 3 32 32 VTop 2
SYMATTR InstName C3
SYMATTR Value 0.1µ
SYMBOL voltage 656 80 R0
WINDOW 123 0 0 Left 0
WINDOW 39 0 0 Left 0
SYMATTR InstName V1
SYMATTR Value 10
SYMBOL voltage 656 224 R0
WINDOW 123 0 0 Left 0
WINDOW 39 0 0 Left 0
SYMATTR InstName V2
SYMATTR Value 10
SYMBOL OpAmps\\LM741 224 112 R0
SYMATTR InstName U1
TEXT -264 424 Left 2 !.tran 10ms startup
TEXT -512 -64 Left 2 ;RC Phase Shift Oscillator
TEXT -472 -24 Left 2 ;F = 5kHz
