Version 4
SHEET 1 880 680
WIRE 272 48 32 48
WIRE 32 128 32 48
WIRE 80 128 32 128
WIRE 176 128 144 128
WIRE 272 128 272 48
WIRE 272 128 240 128
WIRE 288 128 272 128
WIRE 368 128 352 128
WIRE 32 176 32 128
WIRE 144 176 144 128
WIRE 144 176 128 176
WIRE 368 176 368 128
WIRE 432 176 368 176
WIRE 528 176 432 176
WIRE 432 208 432 176
WIRE 528 208 528 176
WIRE 144 224 144 176
WIRE 176 224 144 224
WIRE 272 224 240 224
WIRE 288 224 272 224
WIRE 368 224 368 176
WIRE 368 224 352 224
WIRE 32 288 32 256
WIRE 80 288 80 128
WIRE 272 288 272 224
WIRE 272 288 80 288
WIRE 128 304 128 176
WIRE 432 304 432 272
WIRE 432 304 128 304
WIRE 528 304 528 288
WIRE 528 304 432 304
FLAG 32 288 0
FLAG 432 304 0
SYMBOL diode 176 144 R270
WINDOW 0 32 32 VTop 2
WINDOW 3 0 32 VBottom 2
SYMATTR InstName D1
SYMBOL diode 288 144 R270
WINDOW 0 32 32 VTop 2
WINDOW 3 0 32 VBottom 2
SYMATTR InstName D2
SYMBOL diode 288 240 R270
WINDOW 0 32 32 VTop 2
WINDOW 3 0 32 VBottom 2
SYMATTR InstName D3
SYMBOL diode 176 240 R270
WINDOW 0 32 32 VTop 2
WINDOW 3 0 32 VBottom 2
SYMATTR InstName D4
SYMBOL voltage 32 160 R0
WINDOW 0 -54 16 Left 2
WINDOW 3 -175 88 Left 2
WINDOW 123 0 0 Left 0
WINDOW 39 0 0 Left 0
SYMATTR InstName V1
SYMATTR Value SINE(0 15 1k)
SYMBOL cap 416 208 R0
SYMATTR InstName Cf
SYMATTR Value {C}
SYMBOL res 512 192 R0
SYMATTR InstName Rl
SYMATTR Value 10k
TEXT -144 360 Left 2 !.step param C 0.1u 1u 0.1u
TEXT -136 328 Left 2 !.tran 5ms
TEXT 120 -96 Left 2 ;Bridge Rectifier
TEXT 152 -64 Left 2 ;with Capacitor filter
