Version 4
SHEET 1 880 680
WIRE 80 128 -32 128
WIRE 240 128 160 128
WIRE 400 128 320 128
WIRE -32 176 -32 128
WIRE 400 176 400 128
WIRE -32 304 -32 256
WIRE 176 304 -32 304
WIRE 400 304 400 240
WIRE 400 304 176 304
WIRE 176 320 176 304
FLAG 176 320 0
SYMBOL res 176 112 R90
WINDOW 0 0 56 VBottom 2
WINDOW 3 32 56 VTop 2
SYMATTR InstName R1
SYMATTR Value {R}
SYMBOL ind 224 144 R270
WINDOW 0 32 56 VTop 2
WINDOW 3 5 56 VBottom 2
SYMATTR InstName L1
SYMATTR Value 10m
SYMBOL cap 384 176 R0
SYMATTR InstName C1
SYMATTR Value 0.1µ
SYMBOL voltage -32 160 R0
SYMATTR InstName V1
SYMATTR Value 5
TEXT -328 320 Left 2 !.tran 2m startup
TEXT -408 288 Left 2 !.step param R 50 500 50
TEXT -320 112 Left 2 ;RLC - Transient
